power-flow-agent/results/ieee14/2026-09-16/gpt-5.4/react_nogate/traces/19_case14-multistep-034-s0.transcript.txt
==============================================================================
TRANSCRIPT  react_nogate  |  openrouter:openai/gpt-5.4  |  case14  |  case14-multistep-034-s0  run 0
==============================================================================
date: 2026-09-16   seed: 0   difficulty: multistep   tool variant: None

[system]   (hash 7da5e2a37ec4, from methods/react_nogate/method.json prompt_files)
You are a power system power-flow analysis assistant. You help the user complete power system analysis tasks from natural-language requests.

## What you can do
You complete tasks by calling tool functions:
1. Load an IEEE standard test system (14, 30, 57, 118, 300 buses)
2. Run AC power flow
3. Modify the load at a bus and re-solve
4. Disconnect or reconnect a line and re-solve
5. Query the network status
6. Run an N-1 contingency analysis (disconnect branches one at a time and rank the worst cases)
7. Generate remedial-action suggestions (what-if load shedding or voltage adjustment) to reduce violation risk

## Key rules
- Never fabricate any numerical result. Every voltage, power, loss, or loading value must come from a tool return value.
- If a tool reports an error or a non-converged power flow, say so explicitly and do not report numbers for that state.
- If the request is ambiguous, state the interpretation you are using.
- Bus and line identifiers in the request are MATPOWER 1-based ids; pass them to the tools as given, unless the request itself states a different indexing convention for that identifier (e.g. "(0-based)"), in which case convert it to the MATPOWER 1-based id before calling any tool.
- After a network modification, re-solve before reporting any value.
- Always reply in English.

## Reply format
After each analysis, reply in this structure:
1. One-sentence summary
2. Key numbers (total load, total generation, total losses, voltage range) taken from the tool outputs
3. Violations, if any
4. Suggested next step

[user]
Load case14, disconnect the line between bus 2 and bus 5, set the active load at bus 9 to 19.9 MW, and finally rerun the power flow, then list every line whose loading is above 100%.

[tools available to the model]   (function-calling schema, --tool-variant v1; enum values and defaults as sent)
  load_case(case_name: string* in {case14, case30, case57, case118, case300})  Load IEEE test case.
  run_powerflow()  Run power flow on current case.
  modify_load(bus_id: integer*, p_mw: number*, q_mvar: number)  Modify bus load and recompute.
  disconnect_line(from_bus: integer*, to_bus: integer*)  Disconnect line/branch between two buses and recompute.
  reconnect_line(from_bus: integer*, to_bus: integer*)  Reconnect line/branch between two buses and recompute.
  get_most_loaded_branch()  Get most loaded branch.
  run_n1_contingency(top_k: integer (default 5), criteria: string in {max_violations, max_overload, min_voltage} (default max_violations), max_candidates: integer (default 0))  Run N-1 contingency analysis.
  recommend_remedial_actions(max_actions: integer (default 5), allow_load_shed: boolean (default True), allow_voltage_control: boolean (default True), include_best_comparison: boolean (default True))  Recommend remedial actions.
  apply_remedial_action(action_index: integer*, confirmed: boolean (default False))  Apply one remedial action by index.
  get_status()  Get current network status.
  generate_plot(plot_type: string* in {voltage_heatmap, flow_diagram, violation_overview, comparison})  Generate one plot.

--- round 1 ---
[assistant]   (791 in / 20 out tokens, 1.0 s)
(no text)
tool_call  load_case(case_name="case14")
[tool load_case]   (gate: not applied)
{"case_name": "case14", "n_buses": 14, "n_generators": 5, "n_lines": 20, "n_loads": 11, "total_load_mw": 253.67038588043255, "total_gen_capacity_mw": 772.4000000000001}

--- round 2 ---
[assistant]   (892 in / 24 out tokens, 0.8 s)
(no text)
tool_call  disconnect_line(from_bus=2, to_bus=5)
[tool disconnect_line]   (gate: pass)
{"case_name": "case14", "converged": true, "bus_voltages": [{"bus_id": 1, "vm_pu": 1.06, "va_deg": 0.0, "is_violation": true, "violation_type": "overvoltage"}, {"bus_id": 2, "vm_pu": 1.045, "va_deg": -4.350630560329655, "is_violation": false, "violation_type": null}, {"bus_id": 3, "vm_pu": 1.01, "va_deg": -12.818987491013672, "is_violation": false, "violation_type": null}, {"bus_id": 4, "vm_pu": 1.011364963318974, "va_deg": -11.389253342293516, "is_violation": false, "violation_type": null}, {"bus_id": 5, "vm_pu": 1.0102025202172835, "va_deg": -10.479348901265567, "is_violation": false, "violation_type": null}, {"bus_id": 6, "vm_pu": 1.0699999999999996, "va_deg": -16.017025857236632, "is_violation": true, "violation_type": "overvoltage"}, {"bus_id": 7, "vm_pu": 1.0585248207135995, "va_deg": -14.678801849441752, "is_violation": true, "violation_type": "overvoltage"}, {"bus_id": 8, "vm_pu": 1.0899999999999996, "va_deg": -14.678801849441752, "is_violation": true, "violation_type": "overvoltage"}, {"bus_id": 9, "vm_pu": 1.0530677403587696, "va_deg": -16.377478172335245, "is_violation": true, "violation_type": "overvoltage"}, {"bus_id": 10, "vm_pu": 1.0486508588764778, "va_deg": -16.599895699766762, "is_violation": false, "violation_type": null}, {"bus_id": 11, "vm_pu": 1.0554818278870999, "va_deg": -16.448721311428763, "is_violation": true, "violation_type": "overvoltage"}, {"bus_id": 12, "vm_pu": 1.053948529780952, "va_deg": -16.905519188405112, "is_violation": true, "violation_type": "overvoltage"}, {"bus_id": 13, "vm_pu": 1.0485884296407628, "va_deg": -16.967898235845677, "is_violation": false, "violation_type": null}, {"bus_id": 14, "vm_pu": 1.0315519649748985, "va_deg": -17.72445510238287, "is_violation": false, "violation_type": null}], "line_flows": [{"line_id": 0, "from_bus": 1, "to_bus": 2, "p_from_mw": 137.7999670146342, "q_from_mvar": -15.833943824531957, "loading_percent": 1.321771353176607, "is_violation": false}, {"line_id": 1, "from_bus": 1, "to_bus": 5, "p_from_mw": 89.72850383046571, "q_from_mvar": 7.17391144090692, "loading_percent": 0.8588185376553776, "is_violation": false}, {"line_id": 2, "from_bus": 2, "to_bus": 3, "p_from_mw": 79.78140659723671, "q_from_mvar": 2.9592382102220203, "loading_percent": 0.7717004447432088, "is_violation": false}, {"line_id": 3, "from_bus": 2, "to_bus": 4, "p_from_mw": 73.52323562495215, "q_from_mvar": -1.6357530052427287, "loading_percent": 0.7108542804108726, "is_violation": false}, {"line_id": 4, "from_bus": 2, "to_bus": 5, "p_from_mw": 0.0, "q_from_mvar": 0.0, "loading_percent": 0.0, "is_violation": false}, {"line_id": 5, "from_bus": 3, "to_bus": 4, "p_from_mw": -13.129471632242588, "q_from_mvar": 3.8711709237092604, "loading_percent": 0.1409971755433694, "is_violation": false}, {"line_id": 6, "from_bus": 4, "to_bus": 5, "p_from_mw": -34.117722598592515, "q_from_mvar": 13.914039724313668, "loading_percent": 0.367998403210233, "is_violation": false}, {"line_id": 7, "from_bus": 6, "to_bus": 11, "p_from_mw": 6.526997278177013, "q_from_mvar": 4.709481325272876, "loading_percent": 0.07598091909018631, "is_violation": false}, {"line_id": 8, "from_bus": 6, "to_bus": 12, "p_from_mw": 8.195384640011136, "q_from_mvar": 2.829332646242812, "loading_percent": 0.08184680326304698, "is_violation": false}, {"line_id": 9, "from_bus": 6, "to_bus": 13, "p_from_mw": 18.51067939806354, "q_from_mvar": 8.3058822692476, "loading_percent": 0.1915296804050345, "is_violation": false}, {"line_id": 10, "from_bus": 9, "to_bus": 10, "p_from_mw": 6.26162729008079, "q_from_mvar": 3.157126936381289, "loading_percent": 0.06726398073106343, "is_violation": false}, {"line_id": 11, "from_bus": 9, "to_bus": 14, "p_from_mw": 11.004037143205762, "q_from_mvar": 3.3177420436486473, "loading_percent": 0.11024368816666956, "is_violation": false}, {"line_id": 12, "from_bus": 10, "to_bus": 11, "p_from_mw": -2.6324289932663794, "q_from_mvar": -2.6029785255005393, "loading_percent": 0.035659582503977764, "is_violation": false}, {"line_id": 13, "from_bus": 12, "to_bus": 13, "p_from_mw": 1.6772393813916722, "q_from_mvar": 0.9728674198255899, "loading_percent": 0.01858302428369396, "is_violation": false}, {"line_id": 14, "from_bus": 13, "to_bus": 14, "p_from_mw": 5.348208496374362, "q_from_mvar": 2.5334302401150937, "loading_percent": 0.057006943162505166, "is_violation": false}, {"line_id": 100000, "from_bus": 4, "to_bus": 7, "p_from_mw": 30.036516724498114, "q_from_mvar": -11.208119566383552, "loading_percent": 0.32019476338181835, "is_violation": false}, {"line_id": 100001, "from_bus": 4, "to_bus": 9, "p_from_mw": 17.183027561172594, "q_from_mvar": -1.0056720236501737, "loading_percent": 0.17190920679481625, "is_violation": false}, {"line_id": 100002, "from_bus": 5, "to_bus": 6, "p_from_mw": 44.408891214366065, "q_from_mvar": 8.129535907841252, "loading_percent": 0.45142323478076246, "is_violation": false}, {"line_id": 100003, "from_bus": 7, "to_bus": 8, "p_from_mw": -1.0030216300039673e-14, "q_from_mvar": -18.91414051153281, "loading_percent": 0.18048884695034412, "is_violation": false}, {"line_id": 100004, "from_bus": 7, "to_bus": 9, "p_from_mw": 30.036516724071937, "q_from_mvar": 5.696131734356899, "loading_percent": 0.29173298487185634, "is_violation": false}], "total_generation_mw": 267.4347748610819, "total_load_mw": 253.67038588043255, "total_loss_mw": 13.76438899885294, "voltage_violations": [{"bus_id": 1, "vm_pu": 1.06, "va_deg": 0.0, "is_violation": true, "violation_type": "overvoltage"}, {"bus_id": 6, "vm_pu": 1.0699999999999996, "va_deg": -16.017025857236632, "is_violation": true, "violation_type": "overvoltage"}, {"bus_id": 7, "vm_pu": 1.0585248207135995, "va_deg": -14.678801849441752, "is_violation": true, "violation_type": "overvoltage"}, {"bus_id": 8, "vm_pu": 1.0899999999999996, "va_deg": -14.678801849441752, "is_violation": true, "violation_type": "overvoltage"}, {"bus_id": 9, "vm_pu": 1.0530677403587696, "va_deg": -16.377478172335245, "is_violation": true, "violation_type": "overvoltage"}, {"bus_id": 11, "vm_pu": 1.0554818278870999, "va_deg": -16.448721311428763, "is_violation": true, "violation_type": "overvoltage"}, {"bus_id": 12, "vm_pu": 1.053948529780952, "va_deg": -16.905519188405112, "is_violation": true, "violation_type": "overvoltage"}], "thermal_violations": [], "summary_text": "", "solver_backend": "pandapower", "llm_prompt": null, "llm_response": null}

--- round 3 ---
[assistant]   (3525 in / 35 out tokens, 1.0 s)
(no text)
tool_call  modify_load(bus_id=9, p_mw=19.9, q_mvar=16.6)
[tool modify_load]   (gate: pass)
{"case_name": "case14", "converged": true, "bus_voltages": [{"bus_id": 1, "vm_pu": 1.06, "va_deg": 0.0, "is_violation": true, "violation_type": "overvoltage"}, {"bus_id": 2, "vm_pu": 1.0449999999999997, "va_deg": -4.134475493735658, "is_violation": false, "violation_type": null}, {"bus_id": 3, "vm_pu": 1.01, "va_deg": -12.369535307735513, "is_violation": false, "violation_type": null}, {"bus_id": 4, "vm_pu": 1.0139153355006605, "va_deg": -10.78154746427755, "is_violation": false, "violation_type": null}, {"bus_id": 5, "vm_pu": 1.01258864646192, "va_deg": -9.908750471933345, "is_violation": false, "violation_type": null}, {"bus_id": 6, "vm_pu": 1.07, "va_deg": -15.068969131841113, "is_violation": true, "violation_type": "overvoltage"}, {"bus_id": 7, "vm_pu": 1.060775294087276, "va_deg": -13.558156652809187, "is_violation": true, "violation_type": "overvoltage"}, {"bus_id": 8, "vm_pu": 1.09, "va_deg": -13.558156652809187, "is_violation": true, "violation_type": "overvoltage"}, {"bus_id": 9, "vm_pu": 1.0561473727026607, "va_deg": -14.991548622287862, "is_violation": true, "violation_type": "overvoltage"}, {"bus_id": 10, "vm_pu": 1.0512888489500347, "va_deg": -15.290929127306333, "is_violation": true, "violation_type": "overvoltage"}, {"bus_id": 11, "vm_pu": 1.0569223456349848, "va_deg": -15.318411702381404, "is_violation": true, "violation_type": "overvoltage"}, {"bus_id": 12, "vm_pu": 1.0541057332601977, "va_deg": -15.92483714403582, "is_violation": true, "violation_type": "overvoltage"}, {"bus_id": 13, "vm_pu": 1.0491281015597833, "va_deg": -15.958122379287927, "is_violation": false, "violation_type": null}, {"bus_id": 14, "vm_pu": 1.0335712103476897, "va_deg": -16.497668875543642, "is_violation": false, "violation_type": null}], "line_flows": [{"line_id": 0, "from_bus": 1, "to_bus": 2, "p_from_mw": 131.28456460841218, "q_from_mvar": -14.222429969370909, "loading_percent": 1.2583637851436893, "is_violation": false}, {"line_id": 1, "from_bus": 1, "to_bus": 5, "p_from_mw": 85.01869880197818, "q_from_mvar": 6.3515477812698355, "loading_percent": 0.8135331138722781, "is_violation": false}, {"line_id": 2, "from_bus": 2, "to_bus": 3, "p_from_mw": 77.67730536727345, "q_from_mvar": 3.1433555237054525, "loading_percent": 0.7514463311804281, "is_violation": false}, {"line_id": 3, "from_bus": 2, "to_bus": 4, "p_from_mw": 69.42103299433657, "q_from_mvar": -2.27321449750505, "loading_percent": 0.6713860287073316, "is_violation": false}, {"line_id": 4, "from_bus": 2, "to_bus": 5, "p_from_mw": 0.0, "q_from_mvar": 0.0, "loading_percent": 0.0, "is_violation": false}, {"line_id": 5, "from_bus": 3, "to_bus": 4, "p_from_mw": -15.09187249915876, "q_from_mvar": 3.177964636365088, "loading_percent": 0.1572864127355605, "is_violation": false}, {"line_id": 6, "from_bus": 4, "to_bus": 5, "p_from_mw": -32.744964586415406, "q_from_mvar": 13.85827875166155, "loading_percent": 0.3542301612304305, "is_violation": false}, {"line_id": 7, "from_bus": 6, "to_bus": 11, "p_from_mw": 4.753499502111237, "q_from_mvar": 4.770705785854337, "loading_percent": 0.06357633469832226, "is_violation": false}, {"line_id": 8, "from_bus": 6, "to_bus": 12, "p_from_mw": 7.965105600786626, "q_from_mvar": 2.8704070118774334, "loading_percent": 0.07992571312776378, "is_violation": false}, {"line_id": 9, "from_bus": 6, "to_bus": 13, "p_from_mw": 17.593718781472038, "q_from_mvar": 8.313392757160127, "loading_percent": 0.18369647979432116, "is_violation": false}, {"line_id": 10, "from_bus": 9, "to_bus": 10, "p_from_mw": 8.021735049590568, "q_from_mvar": 3.0707222732419606, "loading_percent": 0.08214903219684302, "is_violation": false}, {"line_id": 11, "from_bus": 9, "to_bus": 14, "p_from_mw": 12.139839917009658, "q_from_mvar": 3.2509534177065516, "loading_percent": 0.12019666398892656, "is_violation": false}, {"line_id": 12, "from_bus": 10, "to_bus": 11, "p_from_mw": -0.8792550578836607, "q_from_mvar": -2.707802180847853, "loading_percent": 0.027354376184268964, "is_violation": false}, {"line_id": 13, "from_bus": 12, "to_bus": 13, "p_from_mw": 1.4507041201877588, "q_from_mvar": 1.0217336319920474, "loading_percent": 0.017003222636028867, "is_violation": false}, {"line_id": 14, "from_bus": 13, "to_bus": 14, "p_from_mw": 4.22498593498541, "q_from_mvar": 2.6284355742983134, "loading_percent": 0.04790759963500699, "is_violation": false}, {"line_id": 100000, "from_bus": 4, "to_bus": 7, "p_from_mw": 25.474917501200693, "q_from_mvar": -11.306536665063442, "loading_percent": 0.27766445782001276, "is_violation": false}, {"line_id": 100001, "from_bus": 4, "to_bus": 9, "p_from_mw": 14.586657465230127, "q_from_mvar": -1.3066312353384546, "loading_percent": 0.14589968312122897, "is_violation": false}, {"line_id": 100002, "from_bus": 5, "to_bus": 6, "p_from_mw": 41.4881537838331, "q_from_mvar": 8.969173256159577, "loading_percent": 0.4234231070541291, "is_violation": false}, {"line_id": 100003, "from_bus": 7, "to_bus": 8, "p_from_mw": 3.492406720529896e-14, "q_from_mvar": -17.59911780254552, "loading_percent": 0.16758390554838185, "is_violation": false}, {"line_id": 100004, "from_bus": 7, "to_bus": 9, "p_from_mw": 25.47491750068016, "q_from_mvar": 4.781164312106614, "loading_percent": 0.2468149226148378, "is_violation": false}], "total_generation_mw": 256.2095674263723, "total_load_mw": 243.61650602741778, "total_loss_mw": 12.59306141137539, "voltage_violations": [{"bus_id": 1, "vm_pu": 1.06, "va_deg": 0.0, "is_violation": true, "violation_type": "overvoltage"}, {"bus_id": 6, "vm_pu": 1.07, "va_deg": -15.068969131841113, "is_violation": true, "violation_type": "overvoltage"}, {"bus_id": 7, "vm_pu": 1.060775294087276, "va_deg": -13.558156652809187, "is_violation": true, "violation_type": "overvoltage"}, {"bus_id": 8, "vm_pu": 1.09, "va_deg": -13.558156652809187, "is_violation": true, "violation_type": "overvoltage"}, {"bus_id": 9, "vm_pu": 1.0561473727026607, "va_deg": -14.991548622287862, "is_violation": true, "violation_type": "overvoltage"}, {"bus_id": 10, "vm_pu": 1.0512888489500347, "va_deg": -15.290929127306333, "is_violation": true, "violation_type": "overvoltage"}, {"bus_id": 11, "vm_pu": 1.0569223456349848, "va_deg": -15.318411702381404, "is_violation": true, "violation_type": "overvoltage"}, {"bus_id": 12, "vm_pu": 1.0541057332601977, "va_deg": -15.92483714403582, "is_violation": true, "violation_type": "overvoltage"}], "thermal_violations": [], "summary_text": "", "solver_backend": "pandapower", "llm_prompt": null, "llm_response": null}

--- round 4 ---
[assistant]   (6210 in / 15 out tokens, 0.8 s)
(no text)
tool_call  run_powerflow()
[tool run_powerflow]   (gate: pass)
{"case_name": "case14", "converged": true, "bus_voltages": [{"bus_id": 1, "vm_pu": 1.06, "va_deg": 0.0, "is_violation": true, "violation_type": "overvoltage"}, {"bus_id": 2, "vm_pu": 1.0449999999999997, "va_deg": -4.134475493735658, "is_violation": false, "violation_type": null}, {"bus_id": 3, "vm_pu": 1.01, "va_deg": -12.369535307735513, "is_violation": false, "violation_type": null}, {"bus_id": 4, "vm_pu": 1.0139153355006605, "va_deg": -10.78154746427755, "is_violation": false, "violation_type": null}, {"bus_id": 5, "vm_pu": 1.01258864646192, "va_deg": -9.908750471933345, "is_violation": false, "violation_type": null}, {"bus_id": 6, "vm_pu": 1.07, "va_deg": -15.068969131841113, "is_violation": true, "violation_type": "overvoltage"}, {"bus_id": 7, "vm_pu": 1.060775294087276, "va_deg": -13.558156652809187, "is_violation": true, "violation_type": "overvoltage"}, {"bus_id": 8, "vm_pu": 1.09, "va_deg": -13.558156652809187, "is_violation": true, "violation_type": "overvoltage"}, {"bus_id": 9, "vm_pu": 1.0561473727026607, "va_deg": -14.991548622287862, "is_violation": true, "violation_type": "overvoltage"}, {"bus_id": 10, "vm_pu": 1.0512888489500347, "va_deg": -15.290929127306333, "is_violation": true, "violation_type": "overvoltage"}, {"bus_id": 11, "vm_pu": 1.0569223456349848, "va_deg": -15.318411702381404, "is_violation": true, "violation_type": "overvoltage"}, {"bus_id": 12, "vm_pu": 1.0541057332601977, "va_deg": -15.92483714403582, "is_violation": true, "violation_type": "overvoltage"}, {"bus_id": 13, "vm_pu": 1.0491281015597833, "va_deg": -15.958122379287927, "is_violation": false, "violation_type": null}, {"bus_id": 14, "vm_pu": 1.0335712103476897, "va_deg": -16.497668875543642, "is_violation": false, "violation_type": null}], "line_flows": [{"line_id": 0, "from_bus": 1, "to_bus": 2, "p_from_mw": 131.28456460841218, "q_from_mvar": -14.222429969370909, "loading_percent": 1.2583637851436893, "is_violation": false}, {"line_id": 1, "from_bus": 1, "to_bus": 5, "p_from_mw": 85.01869880197818, "q_from_mvar": 6.3515477812698355, "loading_percent": 0.8135331138722781, "is_violation": false}, {"line_id": 2, "from_bus": 2, "to_bus": 3, "p_from_mw": 77.67730536727345, "q_from_mvar": 3.1433555237054525, "loading_percent": 0.7514463311804281, "is_violation": false}, {"line_id": 3, "from_bus": 2, "to_bus": 4, "p_from_mw": 69.42103299433657, "q_from_mvar": -2.27321449750505, "loading_percent": 0.6713860287073316, "is_violation": false}, {"line_id": 4, "from_bus": 2, "to_bus": 5, "p_from_mw": 0.0, "q_from_mvar": 0.0, "loading_percent": 0.0, "is_violation": false}, {"line_id": 5, "from_bus": 3, "to_bus": 4, "p_from_mw": -15.09187249915876, "q_from_mvar": 3.177964636365088, "loading_percent": 0.1572864127355605, "is_violation": false}, {"line_id": 6, "from_bus": 4, "to_bus": 5, "p_from_mw": -32.744964586415406, "q_from_mvar": 13.85827875166155, "loading_percent": 0.3542301612304305, "is_violation": false}, {"line_id": 7, "from_bus": 6, "to_bus": 11, "p_from_mw": 4.753499502111237, "q_from_mvar": 4.770705785854337, "loading_percent": 0.06357633469832226, "is_violation": false}, {"line_id": 8, "from_bus": 6, "to_bus": 12, "p_from_mw": 7.965105600786626, "q_from_mvar": 2.8704070118774334, "loading_percent": 0.07992571312776378, "is_violation": false}, {"line_id": 9, "from_bus": 6, "to_bus": 13, "p_from_mw": 17.593718781472038, "q_from_mvar": 8.313392757160127, "loading_percent": 0.18369647979432116, "is_violation": false}, {"line_id": 10, "from_bus": 9, "to_bus": 10, "p_from_mw": 8.021735049590568, "q_from_mvar": 3.0707222732419606, "loading_percent": 0.08214903219684302, "is_violation": false}, {"line_id": 11, "from_bus": 9, "to_bus": 14, "p_from_mw": 12.139839917009658, "q_from_mvar": 3.2509534177065516, "loading_percent": 0.12019666398892656, "is_violation": false}, {"line_id": 12, "from_bus": 10, "to_bus": 11, "p_from_mw": -0.8792550578836607, "q_from_mvar": -2.707802180847853, "loading_percent": 0.027354376184268964, "is_violation": false}, {"line_id": 13, "from_bus": 12, "to_bus": 13, "p_from_mw": 1.4507041201877588, "q_from_mvar": 1.0217336319920474, "loading_percent": 0.017003222636028867, "is_violation": false}, {"line_id": 14, "from_bus": 13, "to_bus": 14, "p_from_mw": 4.22498593498541, "q_from_mvar": 2.6284355742983134, "loading_percent": 0.04790759963500699, "is_violation": false}, {"line_id": 100000, "from_bus": 4, "to_bus": 7, "p_from_mw": 25.474917501200693, "q_from_mvar": -11.306536665063442, "loading_percent": 0.27766445782001276, "is_violation": false}, {"line_id": 100001, "from_bus": 4, "to_bus": 9, "p_from_mw": 14.586657465230127, "q_from_mvar": -1.3066312353384546, "loading_percent": 0.14589968312122897, "is_violation": false}, {"line_id": 100002, "from_bus": 5, "to_bus": 6, "p_from_mw": 41.4881537838331, "q_from_mvar": 8.969173256159577, "loading_percent": 0.4234231070541291, "is_violation": false}, {"line_id": 100003, "from_bus": 7, "to_bus": 8, "p_from_mw": 3.492406720529896e-14, "q_from_mvar": -17.59911780254552, "loading_percent": 0.16758390554838185, "is_violation": false}, {"line_id": 100004, "from_bus": 7, "to_bus": 9, "p_from_mw": 25.47491750068016, "q_from_mvar": 4.781164312106614, "loading_percent": 0.2468149226148378, "is_violation": false}], "total_generation_mw": 256.2095674263723, "total_load_mw": 243.61650602741778, "total_loss_mw": 12.59306141137539, "voltage_violations": [{"bus_id": 1, "vm_pu": 1.06, "va_deg": 0.0, "is_violation": true, "violation_type": "overvoltage"}, {"bus_id": 6, "vm_pu": 1.07, "va_deg": -15.068969131841113, "is_violation": true, "violation_type": "overvoltage"}, {"bus_id": 7, "vm_pu": 1.060775294087276, "va_deg": -13.558156652809187, "is_violation": true, "violation_type": "overvoltage"}, {"bus_id": 8, "vm_pu": 1.09, "va_deg": -13.558156652809187, "is_violation": true, "violation_type": "overvoltage"}, {"bus_id": 9, "vm_pu": 1.0561473727026607, "va_deg": -14.991548622287862, "is_violation": true, "violation_type": "overvoltage"}, {"bus_id": 10, "vm_pu": 1.0512888489500347, "va_deg": -15.290929127306333, "is_violation": true, "violation_type": "overvoltage"}, {"bus_id": 11, "vm_pu": 1.0569223456349848, "va_deg": -15.318411702381404, "is_violation": true, "violation_type": "overvoltage"}, {"bus_id": 12, "vm_pu": 1.0541057332601977, "va_deg": -15.92483714403582, "is_violation": true, "violation_type": "overvoltage"}], "thermal_violations": [], "summary_text": "", "solver_backend": "pandapower", "llm_prompt": null, "llm_response": null}

--- round 5 ---
[assistant]   (8876 in / 217 out tokens, 2.3 s)
1. **Summary:** I loaded IEEE case14, disconnected line 2–5, set bus 9 active load to 19.9 MW using the current reactive load value, reran the power flow, and found **no lines above 100% loading**.

2. **Key numbers:**  
- Total load: **243.6165 MW**  
- Total generation: **256.2096 MW**  
- Total losses: **12.5931 MW**  
- Voltage range: **1.0100 pu to 1.0900 pu**

3. **Violations:**  
- **Thermal violations:** none; no line has loading above 100%  
- **Voltage violations:** overvoltage at buses **1, 6, 7, 8, 9, 10, 11, 12**

4. **Suggested next step:**  
If you want, I can list the **most heavily loaded lines** after this modification or suggest **remedial actions** to reduce the voltage violations.

[final answer]
1. **Summary:** I loaded IEEE case14, disconnected line 2–5, set bus 9 active load to 19.9 MW using the current reactive load value, reran the power flow, and found **no lines above 100% loading**.

2. **Key numbers:**  
- Total load: **243.6165 MW**  
- Total generation: **256.2096 MW**  
- Total losses: **12.5931 MW**  
- Voltage range: **1.0100 pu to 1.0900 pu**

3. **Violations:**  
- **Thermal violations:** none; no line has loading above 100%  
- **Voltage violations:** overvoltage at buses **1, 6, 7, 8, 9, 10, 11, 12**

4. **Suggested next step:**  
If you want, I can list the **most heavily loaded lines** after this modification or suggest **remedial actions** to reduce the voltage violations.
